[Config Wireless01]
description = Five hosts communicating wirelessly with an Access Point
network = WirelessA
sim-time-limit = 20s

*.host*.ipv4.arp.typename = "GlobalArp"

*.hostA.numApps = 1
*.hostA.app[0].typename = "UdpBasicApp"
*.hostA.app[0].destAddresses = "hostB"
*.hostA.app[0].destPort = 5000
*.hostA.app[0].messageLength = 1000B
*.hostA.app[0].sendInterval = exponential(12ms)
*.hostA.app[0].packetName = "UDPData"

*.hostB.numApps = 1
*.hostB.app[0].typename = "UdpSink"
*.hostB.app[0].localPort = 5000

*.hostC.numApps = 1
*.hostC.app[0].typename = "UdpSink"
*.hostC.app[0].localPort = 5000

*.hostD.numApps = 1
*.hostD.app[0].typename = "UdpSink"
*.hostD.app[0].localPort = 5000

*.hostE.numApps = 1
*.hostE.app[0].typename = "UdpSink"
*.hostE.app[0].localPort = 5000

*.host*.wlan[0].typename = "AckingWirelessInterface"
*.host*.wlan[0].mac.useAck = false
*.host*.wlan[0].mac.fullDuplex = false
*.host*.wlan[0].radio.transmitter.communicationRange = 500m
*.host*.wlan[0].radio.receiver.ignoreInterference = true
*.host*.wlan[0].mac.headerLength = 23B

*.host*.wlan[0].radio.transmitter.communicationRange = 250m

*.hostR1.wlan[0].radio.displayCommunicationRange = true

*.host*.**.bitrate = 1Mbps

*.accessPoint.numApps = 1
*.accessPoint.app[0].typename = "UdpBasicApp"
*.accessPoint.app[0].destAddresses = "hostA hostB hostC hostD hostE"
*.accessPoint.app[0].destPort = 5000
*.accessPoint.app[0].messageLength = 1000B
*.accessPoint.app[0].sendInterval = exponential(10ms)
*.accessPoint.app[0].packetName = "UDPData"

*.accessPoint.wlan[0].typename = "AckingWirelessInterface"
*.accessPoint.wlan[0].mac.useAck = false
*.accessPoint.wlan[0].mac.fullDuplex = false
*.accessPoint.wlan[0].radio.transmitter.communicationRange = 500m
*.accessPoint.wlan[0].radio.receiver.ignoreInterference = true
*.accessPoint.wlan[0].mac.headerLength = 23B
*.accessPoint.wlan[0].radio.transmitter.communicationRange = 250m

*.accessPoint.wlan[0].radio.displayCommunicationRange = true

*.radioMedium.typename = "UnitDiskRadioMedium"

*.accessPoint.app[0].debug = true

*.accessPoint.wlan[0].bitrate = 1Mbps